Circuit: * C:\Users\steve\OneDrive\Desktop\Schule\5AHEL\Maturaprojekt\Simulation\Draft3.asc

.OP point found by inspection.

Date: Tue Feb 01 15:13:40 2022
Total elapsed time: 0.156 seconds.

tnom = 27
temp = 27
method = modified trap
totiter = 2774
traniter = 2774
tranpoints = 1388
accept = 1320
rejected = 68
matrix size = 5
fillins = 0
solver = Alternate
Matrix Compiler1: 128 bytes object code size  0.2/0.2/[0.2]
Matrix Compiler2: 339 bytes object code size  0.2/0.3/[0.2]

