Circuit: * C:\Users\steve\OneDrive\Desktop\Schule\5AHEL\Maturaprojekt\Simulation\StepDown24_3_3V.asc

Direct Newton iteration for .op point succeeded.

Date: Thu Nov 25 13:19:57 2021
Total elapsed time: 4.290 seconds.

tnom = 27
temp = 27
method = modified trap
totiter = 310039
traniter = 310022
tranpoints = 93846
accept = 74385
rejected = 19461
matrix size = 12
fillins = 1
solver = Alternate
Matrix Compiler1: 762 bytes object code size  0.7/0.6/[0.5]
Matrix Compiler2: off  [0.6]/0.8/1.1

