Circuit: * C:\Users\steve\OneDrive\Desktop\Schule\5AHEL\Maturaprojekt\Simulation\StepDown24_5V.asc

Direct Newton iteration for .op point succeeded.

Date: Tue Mar 22 08:21:06 2022
Total elapsed time: 17.183 seconds.

tnom = 27
temp = 27
method = modified trap
totiter = 1072478
traniter = 1072472
tranpoints = 285841
accept = 223606
rejected = 62235
matrix size = 11
fillins = 1
solver = Alternate
Matrix Compiler1: 696 bytes object code size  0.8/0.8/[0.6]
Matrix Compiler2: off  [0.8]/1.1/0.9

