Circuit: * C:\Users\steve\OneDrive\Desktop\Schule\5AHEL\Maturaprojekt\Simulation\Draft1.asc

Direct Newton iteration for .op point succeeded.

Date: Wed Oct 20 11:06:15 2021
Total elapsed time: 3.900 seconds.

tnom = 27
temp = 27
method = modified trap
totiter = 457120
traniter = 457114
tranpoints = 210799
accept = 129633
rejected = 81166
matrix size = 11
fillins = 0
solver = Alternate
Matrix Compiler1: 646 bytes object code size  0.4/0.4/[0.3]
Matrix Compiler2: off  [0.4]/0.5/0.6

