Circuit: * C:\Users\steve\OneDrive\Desktop\Schule\5AHEL\Maturaprojekt\Simulation\Relay.asc

Direct Newton iteration for .op point succeeded.

Date: Fri Dec 17 13:12:13 2021
Total elapsed time: 0.244 seconds.

tnom = 27
temp = 27
method = modified trap
totiter = 3854
traniter = 3849
tranpoints = 1661
accept = 1544
rejected = 117
matrix size = 10
fillins = 0
solver = Alternate
Matrix Compiler1: 448 bytes object code size  0.5/0.4/[0.3]
Matrix Compiler2: off  [0.5]/0.7/0.6

