Circuit: * C:\Users\steve\OneDrive\Desktop\Schule\5AHEL\Maturaprojekt\Simulation\StepDown24_3_3V.asc

Direct Newton iteration for .op point succeeded.

Date: Thu Oct 21 15:14:25 2021
Total elapsed time: 37.974 seconds.

tnom = 27
temp = 27
method = modified trap
totiter = 3260060
traniter = 3260054
tranpoints = 942556
accept = 747953
rejected = 194603
matrix size = 11
fillins = 1
solver = Alternate
Matrix Compiler1: 696 bytes object code size  0.4/0.4/[0.3]
Matrix Compiler2: off  [0.4]/0.5/0.5

