Circuit: * C:\Users\steve\OneDrive\Desktop\Schule\5AHEL\Maturaprojekt\Simulation\StepDown24_5V.asc

Direct Newton iteration for .op point succeeded.

Date: Mon Jan 17 13:24:11 2022
Total elapsed time: 22.788 seconds.

tnom = 27
temp = 27
method = modified trap
totiter = 2859096
traniter = 2859079
tranpoints = 852147
accept = 663540
rejected = 188607
matrix size = 12
fillins = 1
solver = Alternate
Matrix Compiler1: 762 bytes object code size  0.5/0.4/[0.3]
Matrix Compiler2: off  [0.4]/0.5/0.9

